/* WARNING: DO NOT EDIT this file! Any user changes made in files
        in RUNDIR will be overriden. This file is automatically generated.
        MOM6 parameter changes may ve made via SourceMods or user_nl_mom
        within CASEROOT.*/
#override INPUTDIR = "INPUT"
#override Z_INIT_REMAP_GENERAL = True
#override CHANNEL_CONFIG = "list"
#override CHANNEL_LIST_FILE = "MOM_channels_global_t025"
#override USE_CVMix_TIDAL = True
INT_TIDE_DISSIPATION = True
#override TIDAL_ENERGY_FILE = "energy_new_tx1_4_conserve_011023_cdf5.nc"
#override TIDAL_ENERGY_TYPE = Jayne
#override USE_MEKE = True
#override MEKE_BGSRC = 0
#override MEKE_ALPHA_RHINES = 1.0
#override MEKE_ALPHA_EADY = 0.0
DIABATIC_FIRST = False
#override RESTORE_SALINITY = True
#override SALT_RESTORE_FILE = "state_restore_tx1_4_20221227.nc"
#override FLUXCONST = 0.166
#override ADJUST_NET_FRESH_WATER_TO_ZERO = True
ADJUST_NET_SRESTORE_TO_ZERO = True
READ_TIDEAMP = False
#override PRESSURE_DEPENDENT_FRAZIL = True
CHL_VARNAME = "CHL_A"
#override CHL_FILE = "seawifs-clim-1997-2010-tx1_4v1.nc"
DO_GEOTHERMAL = False
TOPO_EDITS_FILE = ""
#override NK = 75
#override REGRIDDING_COORDINATE_MODE = "HYCOM1"
#override INTERPOLATION_SCHEME = "PPM_CW"
#override REMAPPING_SCHEME = "PPM_CW"
VELOCITY_REMAPPING_SCHEME = "PPM_CW"
#override HYCOM1_ONLY_IMPROVES = True
#override BOUNDARY_EXTRAPOLATION = True
#override ALE_COORDINATE_CONFIG = "HYBRID:hybrid_75layer_zstar2.50m-2020-11-23.nc,sigma2,dz"
REGRID_COMPRESSIBILITY_FRACTION = 0.0
#override MAXIMUM_INT_DEPTH_CONFIG = "FNC1:5,8000.0,1.0,.01"
#override MAX_LAYER_THICKNESS_CONFIG = "FILE:dz_max_90th_quantile.nc,dz"
#override COORD_CONFIG = "ALE"
#override MEKE_GMCOEFF = -1.0
#override LAPLACIAN = True
MEKE_VISCOSITY_COEFF_KU = -0.075
MEKE_COLD_START = True
EBT_POWER = 2
MEKE_CD_SCALE = 1.0
MEKE_CB = 0.0
MEKE_CT = 0.0
MEKE_FRCOEFF = 1.0
MEKE_KH = 0.0
MEKE_KHCOEFF = 0.75
MEKE_KHTH_FAC = 0.0
MEKE_MIN_LSCALE = True
MEKE_ALPHA_GRID = 1.0
MEKE_ADVECTION_FACTOR = 1.0
MEKE_TOPOGRAPHIC_BETA = 1.0
RES_SCALE_MEKE_VISC = False
RES_SCALE_MEKE_VISC_REV = True
VISC_RES_SCALE_COEF = 2.0
VISC_RES_FN_POWER = 50
#override KV = 0
KD = 0
#override PRANDTL_BKGND = 1
KHTH = 1000
DEPTH_SCALED_KHTH = True
KHTH_USE_EBT_STRUCT = True
KHTH_SLOPE_CFF = 0.01
#override USE_STORED_SLOPES = True
DEPTH_SCALED_KHTH_H0 = 250.0
DEPTH_SCALED_KHTH_EXP = 3.0
#override KHTH_MAX_CFL = 0.8
KHTH_USE_FGNV_STREAMFUNCTION = True
FGNV_C_MIN = 0.01
USE_KH_IN_MEKE = True
#override RESOLN_SCALED_KHTH = True
KH_RES_SCALE_COEF = 2.0
KH_RES_FN_POWER = 50
KHTR = 1000
RESOLN_SCALED_KHTR = True
KHTR_USE_EBT_STRUCT = True
MAX_TR_DIFFUSION_CFL = 2.0
USE_NEUTRAL_DIFFUSION = True
NDIFF_INTERIOR_ONLY = True
NDIFF_TAPERING = True
USE_HORIZONTAL_BOUNDARY_DIFFUSION = True
HBD_LINEAR_TRANSITION = True
#override KHTR_SLOPE_CFF = 0.0
