/* WARNING: DO NOT EDIT this file! Any user changes made in files
        in RUNDIR will be overriden. This file is automatically generated.
        MOM6 parameter changes may ve made via SourceMods or user_nl_mom
        within CASEROOT.*/
#override INPUTDIR = "INPUT"
#override Z_INIT_REMAP_GENERAL = True
#override CHANNEL_CONFIG = "list"
#override CHANNEL_LIST_FILE = "MOM_channels_global_t025"
#override USE_CVMix_TIDAL = True
INT_TIDE_DISSIPATION = True
#override TIDAL_ENERGY_FILE = "energy_new_tx1_4_conserve_011023_cdf5.nc"
#override TIDAL_ENERGY_TYPE = Jayne
#override USE_MEKE = True
#override MEKE_BGSRC = 1.0E-13
#override MEKE_ALPHA_RHINES = 0.15
#override MEKE_ALPHA_EADY = 0.15
DIABATIC_FIRST = False
#override RESTORE_SALINITY = True
#override SALT_RESTORE_FILE = "state_restore_tx1_4_20221227.nc"
#override FLUXCONST = 0.166
#override ADJUST_NET_FRESH_WATER_TO_ZERO = True
ADJUST_NET_SRESTORE_TO_ZERO = True
READ_TIDEAMP = False
#override PRESSURE_DEPENDENT_FRAZIL = True
CHL_VARNAME = "CHL_A"
#override CHL_FILE = "seawifs-clim-1997-2010-tx1_4v1.nc"
DO_GEOTHERMAL = False
TOPO_EDITS_FILE = ""
#override NK = 75
#override REGRIDDING_COORDINATE_MODE = "HYCOM1"
#override INTERPOLATION_SCHEME = "PPM_CW"
#override REMAPPING_SCHEME = "PPM_CW"
VELOCITY_REMAPPING_SCHEME = "PPM_CW"
#override HYCOM1_ONLY_IMPROVES = True
#override BOUNDARY_EXTRAPOLATION = True
#override ALE_COORDINATE_CONFIG = "HYBRID:hybrid_75layer_zstar2.50m-2020-11-23.nc,sigma2,dz"
REGRID_COMPRESSIBILITY_FRACTION = 0.0
#override MAXIMUM_INT_DEPTH_CONFIG = "FNC1:5,8000.0,1.0,.01"
#override MAX_LAYER_THICKNESS_CONFIG = "FILE:dz_max_90th_quantile.nc,dz"
#override COORD_CONFIG = "ALE"
