! This file was written by the model and records the non-default parameters used at run-time.

! === module MOM ===
USE_REGRIDDING = True           !   [Boolean] default = False
                                ! If True, use the ALE algorithm (regridding/remapping). If False, use the
                                ! layered isopycnal algorithm.
THICKNESSDIFFUSE = True         !   [Boolean] default = False
                                ! If true, isopycnal surfaces are diffused with a Laplacian coefficient of KHTH.
THICKNESSDIFFUSE_FIRST = True   !   [Boolean] default = False
                                ! If true, do thickness diffusion or interface height smoothing before dynamics.
                                ! This is only used if THICKNESSDIFFUSE or APPLY_INTERFACE_FILTER is true.
USE_POROUS_BARRIER = False      !   [Boolean] default = True
                                ! If true, use porous barrier to constrain the widths and face areas at the
                                ! edges of the grid cells.
DT = 900.0                      !   [s]
                                ! The (baroclinic) dynamics time step.  The time-step that is actually used will
                                ! be an integer fraction of the forcing time-step (DT_FORCING in ocean-only mode
                                ! or the coupling timestep in coupled mode.)
DT_THERM = 3600.0               !   [s] default = 900.0
                                ! The thermodynamic and tracer advection time step. Ideally DT_THERM should be
                                ! an integer multiple of DT and less than the forcing or coupling time-step,
                                ! unless THERMO_SPANS_COUPLING is true, in which case DT_THERM can be an integer
                                ! multiple of the coupling timestep.  By default DT_THERM is set to DT.
HFREEZE = 10.0                  !   [m] default = -1.0
                                ! If HFREEZE > 0, melt potential will be computed. The actual depth over which
                                ! melt potential is computed will be min(HFREEZE, OBLD), where OBLD is the
                                ! boundary layer depth. If HFREEZE <= 0 (default), melt potential will not be
                                ! computed.
FRAZIL = True                   !   [Boolean] default = False
                                ! If true, water freezes if it gets too cold, and the accumulated heat deficit
                                ! is returned in the surface state.  FRAZIL is only used if
                                ! ENABLE_THERMODYNAMICS is true.
BOUND_SALINITY = True           !   [Boolean] default = False
                                ! If true, limit salinity to being positive. (The sea-ice model may ask for more
                                ! salt than is available and drive the salinity negative otherwise.)
C_P = 3992.0                    !   [J kg-1 K-1] default = 3991.86795711963
                                ! The heat capacity of sea water, approximated as a constant. This is only used
                                ! if ENABLE_THERMODYNAMICS is true. The default value is from the TEOS-10
                                ! definition of conservative temperature.
CHECK_BAD_SURFACE_VALS = True   !   [Boolean] default = False
                                ! If true, check the surface state for ridiculous values.
BAD_VAL_SSH_MAX = 50.0          !   [m] default = 20.0
                                ! The value of SSH above which a bad value message is triggered, if
                                ! CHECK_BAD_SURFACE_VALS is true.
BAD_VAL_SST_MAX = 65.0          !   [deg C] default = 45.0
                                ! The value of SST above which a bad value message is triggered, if
                                ! CHECK_BAD_SURFACE_VALS is true.
BAD_VAL_SST_MIN = -3.0          !   [deg C] default = -2.1
                                ! The value of SST below which a bad value message is triggered, if
                                ! CHECK_BAD_SURFACE_VALS is true.
SAVE_INITIAL_CONDS = True       !   [Boolean] default = False
                                ! If true, write the initial conditions to a file given by IC_OUTPUT_FILE.

! === module MOM_domains ===
TRIPOLAR_N = True               !   [Boolean] default = False
                                ! Use tripolar connectivity at the northern edge of the domain.  With
                                ! TRIPOLAR_N, NIGLOBAL must be even.
NIGLOBAL = 1440                 !
                                ! The total number of thickness grid points in the x-direction in the physical
                                ! domain. With STATIC_MEMORY_ this is set in MOM_memory.h at compile time.
NJGLOBAL = 1080                 !
                                ! The total number of thickness grid points in the y-direction in the physical
                                ! domain. With STATIC_MEMORY_ this is set in MOM_memory.h at compile time.

! === module MOM_fixed_initialization ===
INPUTDIR = "INPUT"              ! default = "."
                                ! The directory in which input files are found.

! === module MOM_grid_init ===
GRID_CONFIG = "mosaic"          !
                                ! A character string that determines the method for defining the horizontal
                                ! grid.  Current options are:
                                !     mosaic - read the grid from a mosaic (supergrid)
                                !              file set by GRID_FILE.
                                !     cartesian - use a (flat) Cartesian grid.
                                !     spherical - use a simple spherical grid.
                                !     mercator - use a Mercator spherical grid.
GRID_FILE = "ocean_hgrid.nc"    !
                                ! Name of the file from which to read horizontal grid data.
TOPO_CONFIG = "file"            !
                                ! This specifies how bathymetry is specified:
                                !     file - read bathymetric information from the file
                                !       specified by (TOPO_FILE).
                                !     flat - flat bottom set to MAXIMUM_DEPTH.
                                !     bowl - an analytically specified bowl-shaped basin
                                !       ranging between MAXIMUM_DEPTH and MINIMUM_DEPTH.
                                !     spoon - a similar shape to 'bowl', but with an vertical
                                !       wall at the southern face.
                                !     halfpipe - a zonally uniform channel with a half-sine
                                !       profile in the meridional direction.
                                !     bbuilder - build topography from list of functions.
                                !     benchmark - use the benchmark test case topography.
                                !     Neverworld - use the Neverworld test case topography.
                                !     DOME - use a slope and channel configuration for the
                                !       DOME sill-overflow test case.
                                !     ISOMIP - use a slope and channel configuration for the
                                !       ISOMIP test case.
                                !     DOME2D - use a shelf and slope configuration for the
                                !       DOME2D gravity current/overflow test case.
                                !     Kelvin - flat but with rotated land mask.
                                !     seamount - Gaussian bump for spontaneous motion test case.
                                !     dumbbell - Sloshing channel with reservoirs on both ends.
                                !     shelfwave - exponential slope for shelfwave test case.
                                !     Phillips - ACC-like idealized topography used in the Phillips config.
                                !     dense - Denmark Strait-like dense water formation and overflow.
                                !     USER - call a user modified routine.
TOPO_FILE = "ocean_topog.nc"    ! default = "topog.nc"
                                ! The file from which the bathymetry is read.
MINIMUM_DEPTH = 9.5             !   [m] default = 0.0
                                ! If MASKING_DEPTH is unspecified, then anything shallower than MINIMUM_DEPTH is
                                ! assumed to be land and all fluxes are masked out. If MASKING_DEPTH is
                                ! specified, then all depths shallower than MINIMUM_DEPTH but deeper than
                                ! MASKING_DEPTH are rounded to MINIMUM_DEPTH.
MASKING_DEPTH = 0.0             !   [m] default = -9999.0
                                ! The depth below which to mask points as land points, for which all fluxes are
                                ! zeroed out. MASKING_DEPTH is ignored if it has the special default value.
MAXIMUM_DEPTH = 6000.0          !   [m]
                                ! The maximum depth of the ocean.
CHANNEL_CONFIG = "list"         ! default = "none"
                                ! A parameter that determines which set of channels are
                                ! restricted to specific  widths.  Options are:
                                !     none - All channels have the grid width.
                                !     global_1deg - Sets 16 specific channels appropriate
                                !       for a 1-degree model, as used in CM2G.
                                !     list - Read the channel locations and widths from a
                                !       text file, like MOM_channel_list in the MOM_SIS
                                !       test case.
                                !     file - Read open face widths everywhere from a
                                !       NetCDF file on the model grid.
CHANNEL_LIST_FILE = "MOM_channels_global_t025" ! default = "MOM_channel_list"
                                ! The file from which the list of narrowed channels is read.

! === module MOM_verticalGrid ===
! Parameters providing information about the vertical grid.
NK = 75                         !   [nondim]
                                ! The number of model layers.

! === module MOM_EOS ===
DTFREEZE_DP = -7.75E-08         !   [deg C Pa-1] default = 0.0
                                ! When TFREEZE_FORM=LINEAR, this is the derivative of the freezing potential
                                ! temperature with pressure.

! === module MOM_tracer_flow_control ===
USE_IDEAL_AGE_TRACER = True     !   [Boolean] default = False
                                ! If true, use the ideal_age_example tracer package.
USE_CFC_CAP = False             !   [Boolean] default = False
                                ! If true, use the MOM_CFC_cap tracer package.
! === module ideal_age_example ===

! === module MOM_coord_initialization ===
COORD_CONFIG = "ALE"            ! default = "none"
                                ! This specifies how layers are to be defined:
                                !     ALE or none - used to avoid defining layers in ALE mode
                                !     file - read coordinate information from the file
                                !       specified by (COORD_FILE).
                                !     BFB - Custom coords for buoyancy-forced basin case
                                !       based on SST_S, T_BOT and DRHO_DT.
                                !     linear - linear based on interfaces not layers
                                !     layer_ref - linear based on layer densities
                                !     ts_ref - use reference temperature and salinity
                                !     ts_range - use range of temperature and salinity
                                !       (T_REF and S_REF) to determine surface density
                                !       and GINT calculate internal densities.
                                !     gprime - use reference density (RHO_0) for surface
                                !       density and GINT calculate internal densities.
                                !     ts_profile - use temperature and salinity profiles
                                !       (read from COORD_FILE) to set layer densities.
                                !     USER - call a user modified routine.
REGRIDDING_COORDINATE_MODE = "HYCOM1" ! default = "LAYER"
                                ! Coordinate mode for vertical regridding. Choose among the following
                                ! possibilities:  LAYER - Isopycnal or stacked shallow water layers
                                !  ZSTAR, Z* - stretched geopotential z*
                                !  SIGMA_SHELF_ZSTAR - stretched geopotential z* ignoring shelf
                                !  SIGMA - terrain following coordinates
                                !  RHO   - continuous isopycnal
                                !  HYCOM1 - HyCOM-like hybrid coordinate
                                !  HYBGEN - Hybrid coordinate from the Hycom hybgen code
                                !  ADAPTIVE - optimize for smooth neutral density surfaces
INTERPOLATION_SCHEME = "PPM_CW" ! default = "P1M_H2"
                                ! This sets the interpolation scheme to use to determine the new grid. These
                                ! parameters are only relevant when REGRIDDING_COORDINATE_MODE is set to a
                                ! function of state. Otherwise, it is not used. It can be one of the following
                                ! schemes:
                                !  P1M_H2     (2nd-order accurate)
                                !  P1M_H4     (2nd-order accurate)
                                !  P1M_IH4    (2nd-order accurate)
                                !  PLM        (2nd-order accurate)
                                !  PPM_CW     (3rd-order accurate)
                                !  PPM_H4     (3rd-order accurate)
                                !  PPM_IH4    (3rd-order accurate)
                                !  P3M_IH4IH3 (4th-order accurate)
                                !  P3M_IH6IH5 (4th-order accurate)
                                !  PQM_IH4IH3 (4th-order accurate)
                                !  PQM_IH6IH5 (5th-order accurate)
BOUNDARY_EXTRAPOLATION = True   !   [Boolean] default = False
                                ! When defined, a proper high-order reconstruction scheme is used within
                                ! boundary cells rather than PCM. E.g., if PPM is used for remapping, a PPM
                                ! reconstruction will also be used within boundary cells.
ALE_COORDINATE_CONFIG = "HYBRID:hybrid_75layer_zstar2.50m-2020-11-23.nc,sigma2,dz" ! default = "UNIFORM"
                                ! Determines how to specify the coordinate resolution. Valid options are:
                                !  PARAM       - use the vector-parameter ALE_RESOLUTION
                                !  UNIFORM[:N] - uniformly distributed
                                !  FILE:string - read from a file. The string specifies
                                !                the filename and variable name, separated
                                !                by a comma or space, e.g. FILE:lev.nc,dz
                                !                or FILE:lev.nc,interfaces=zw
                                !  WOA09[:N]   - the WOA09 vertical grid (approximately)
                                !  FNC1:string - FNC1:dz_min,H_total,power,precision
                                !  HYBRID:string - read from a file. The string specifies
                                !                the filename and two variable names, separated
                                !                by a comma or space, for sigma-2 and dz. e.g.
                                !                HYBRID:vgrid.nc,sigma2,dz
!ALE_RESOLUTION = 35*2.5, 2.527439024390244, 2.5548780487804876, 2.582317073170732, 2.6097560975609757, 2.6371951219512195, 2.664634146341464, 2.698212161695541, 2.8299197180488456, 3.0878042939530506, 3.4167062085727316, 3.8351372093161946, 4.36234805597549, 5.047495536753699, 5.913086504019675, 7.021146491311114, 8.423866996212782, 10.188226915175152, 12.419589848984488, 15.217630909285909, 18.709248403953467, 23.074169546761443, 28.497350844376868, 35.21492361896417, 43.52700528413181, 53.76273778271205, 66.33899052518652, 81.75490579967018, 100.60077310689755, 123.5600573790826, 151.47564446834878, 185.3334627553761, 226.30176754655326, 275.7315681423163, 335.26786251603534, 406.7827801371652, 492.5265092055195, 595.0921063231123, 717.5213145790998, 863.3791002523719, 1036.8035528747275 !   [m]
                                ! The distribution of vertical resolution for the target
                                ! grid used for Eulerian-like coordinates. For example,
                                ! in z-coordinate mode, the parameter is a list of level
                                ! thicknesses (in m). In sigma-coordinate mode, the list
                                ! is of non-dimensional fractions of the water column.
!TARGET_DENSITIES = 1007.0, 1010.0, 1013.0, 1016.0, 1019.0, 1022.0, 1025.0, 1028.0, 1028.75, 1029.0, 1029.25, 1029.5, 1029.75, 1030.0, 1030.25, 1030.5, 1030.75, 1031.0, 1031.25, 1031.5, 1031.75, 1032.0, 1032.25, 1032.5, 1032.75, 1033.0, 1033.25, 1033.5, 1033.75, 1034.0, 1034.2519, 1034.4817, 1034.6774, 1034.8508, 1035.0082, 1035.152839584267, 1035.2894674623556, 1035.4194601848208, 1035.5438015496263, 1035.6633460612363, 1035.7787791846445, 1035.890629544536, 1035.9991297939173, 1036.1028225239427, 1036.2004418549584, 1036.2931535129815, 1036.3818693793687, 1036.4670323261143, 1036.5492024023818, 1036.6287438360016, 1036.7059668926029, 1036.781249437741, 1036.8410967918985, 1036.883053343774, 1036.9181931162996, 1036.9486943990516, 1036.9760909091335, 1037.0011646353446, 1037.0246354820042, 1037.046553737505, 1037.067850294313, 1037.0893062543132, 1037.1109566743132, 1037.1328015543131, 1037.154840894313, 1037.1770767881626, 1037.2000322705421, 1037.2247507211691, 1037.252043445207, 1037.2823456029234, 1037.3169490249547, 1037.3583146779383, 1037.411887178642, 1037.4997971508435, 1037.7258282209598, 1038.0000835237952 !   [m]
                                ! HYBRID target densities for interfaces
HYCOM1_ONLY_IMPROVES = True     !   [Boolean] default = False
                                ! When regridding, an interface is only moved if this improves the fit to the
                                ! target density.
MAXIMUM_INT_DEPTH_CONFIG = "FNC1:5,8000.0,1.0,.01" ! default = "NONE"
                                ! Determines how to specify the maximum interface depths.
                                ! Valid options are:
                                !  NONE        - there are no maximum interface depths
                                !  PARAM       - use the vector-parameter MAXIMUM_INTERFACE_DEPTHS
                                !  FILE:string - read from a file. The string specifies
                                !                the filename and variable name, separated
                                !                by a comma or space, e.g. FILE:lev.nc,Z
                                !  FNC1:string - FNC1:dz_min,H_total,power,precision
!MAXIMUM_INT_DEPTHS = 0.0, 5.0, 12.75, 23.25, 36.49, 52.480000000000004, 71.22, 92.71000000000001, 116.94000000000001, 143.92000000000002, 173.65, 206.13, 241.36, 279.33000000000004, 320.05000000000007, 363.5200000000001, 409.7400000000001, 458.7000000000001, 510.4100000000001, 564.8700000000001, 622.0800000000002, 682.0300000000002, 744.7300000000002, 810.1800000000003, 878.3800000000003, 949.3300000000004, 1023.0200000000004, 1099.4600000000005, 1178.6500000000005, 1260.5900000000006, 1345.2700000000007, 1432.7000000000007, 1522.8800000000008, 1615.8100000000009, 1711.490000000001, 1809.910000000001, 1911.080000000001, 2015.0000000000011, 2121.670000000001, 2231.080000000001, 2343.2400000000007, 2458.1500000000005, 2575.8100000000004, 2696.2200000000003, 2819.3700000000003, 2945.2700000000004, 3073.9200000000005, 3205.3200000000006, 3339.4600000000005, 3476.3500000000004, 3615.9900000000002, 3758.38, 3903.52, 4051.4, 4202.03, 4355.41, 4511.54, 4670.41, 4832.03, 4996.4, 5163.5199999999995, 5333.379999999999, 5505.989999999999, 5681.3499999999985, 5859.459999999998, 6040.319999999998, 6223.919999999998, 6410.269999999999, 6599.369999999999, 6791.219999999999, 6985.8099999999995, 7183.15, 7383.24, 7586.08, 7791.67, 8000.0
                                ! The list of maximum depths for each interface.
MAX_LAYER_THICKNESS_CONFIG = "FILE:dz_max_90th_quantile.nc,dz" ! default = "NONE"
                                ! Determines how to specify the maximum layer thicknesses.
                                ! Valid options are:
                                !  NONE        - there are no maximum layer thicknesses
                                !  PARAM       - use the vector-parameter MAX_LAYER_THICKNESS
                                !  FILE:string - read from a file. The string specifies
                                !                the filename and variable name, separated
                                !                by a comma or space, e.g. FILE:lev.nc,Z
                                !  FNC1:string - FNC1:dz_min,H_total,power,precision
!MAX_LAYER_THICKNESS = 4*2.5, 4.65954471, 4.91196546, 5.19412109, 5.50946059, 5.86181952, 6.25546, 6.69511391, 7.18602944, 7.73402094, 8.34552182, 9.02764048, 9.78821859, 10.63589128, 11.58014822, 12.63139452, 13.80100975, 15.10140314, 16.54606232, 18.14959251, 19.92774221, 21.89741083, 24.07663286, 26.4845323, 29.14124041, 32.06776905, 35.28583156, 38.81760291, 42.68541118, 46.91135357, 51.51683185, 56.52200507, 61.94516131, 67.80201558, 74.1049473, 80.86219824, 88.07705989, 95.74708725, 103.86338297, 112.41000134, 121.36352345, 130.69285331, 140.35927768, 150.31682062, 160.51290687, 170.8893278, 181.38348107, 191.92983316, 202.46153511, 212.91210815, 223.21710955, 233.31569094, 243.15197092, 252.67615996, 261.84539616, 270.62427305, 278.98506237, 286.90765387, 294.37924899, 301.39385482, 307.95162933, 314.05812899, 319.72350586, 324.96169559, 329.78962955, 334.22649664, 338.29307219, 342.01112468, 345.40290465, 348.49071585, 351.29656501, 353.84188435 !   [m]
                                ! The list of maximum thickness for each layer.
REMAPPING_SCHEME = "PPM_CW"     ! default = "PLM"
                                ! This sets the reconstruction scheme used for vertical remapping for all
                                ! variables. It can be one of the following schemes:
                                ! PCM         (1st-order accurate)
                                ! PLM         (2nd-order accurate)
                                ! PLM_HYBGEN  (2nd-order accurate)
                                ! PPM_H4      (3rd-order accurate)
                                ! PPM_IH4     (3rd-order accurate)
                                ! PPM_HYBGEN  (3rd-order accurate)
                                ! WENO_HYBGEN (3rd-order accurate)
                                ! PQM_IH4IH3  (4th-order accurate)
                                ! PQM_IH6IH5  (5th-order accurate)

! === module MOM_state_initialization ===
INIT_LAYERS_FROM_Z_FILE = True  !   [Boolean] default = False
                                ! If true, initialize the layer thicknesses, temperatures, and salinities from a
                                ! Z-space file on a latitude-longitude grid.

! === module MOM_initialize_layers_from_Z ===
TEMP_SALT_Z_INIT_FILE = "woa18_04_initial_conditions.nc" ! default = "temp_salt_z.nc"
                                ! The name of the z-space input file used to initialize temperatures (T) and
                                ! salinities (S). If T and S are not in the same file, TEMP_Z_INIT_FILE and
                                ! SALT_Z_INIT_FILE must be set.
Z_INIT_FILE_PTEMP_VAR = "theta0" ! default = "ptemp"
                                ! The name of the potential temperature variable in TEMP_Z_INIT_FILE.
Z_INIT_FILE_SALT_VAR = "s_an"   ! default = "salt"
                                ! The name of the salinity variable in SALT_Z_INIT_FILE.
Z_INIT_ALE_REMAPPING = True     !   [Boolean] default = False
                                ! If True, then remap straight to model coordinate from file.
Z_INIT_REMAP_GENERAL = True     !   [Boolean] default = False
                                ! If false, only initializes to z* coordinates. If true, allows initialization
                                ! directly to general coordinates.

! === module MOM_diag_mediator ===
DIAG_MISVAL = -1.0E+34          !   [various] default = 1.0E+20
                                ! Set the default missing value to use for diagnostics.

! === module MOM_MEKE ===
USE_MEKE = True                 !   [Boolean] default = False
                                ! If true, turns on the MEKE scheme which calculates a sub-grid mesoscale eddy
                                ! kinetic energy budget.
MEKE_GMCOEFF = 1.0              !   [nondim] default = -1.0
                                ! The efficiency of the conversion of potential energy into MEKE by the
                                ! thickness mixing parameterization. If MEKE_GMCOEFF is negative, this
                                ! conversion is not used or calculated.
MEKE_BGSRC = 1.0E-13            !   [W kg-1] default = 0.0
                                ! A background energy source for MEKE.
MEKE_KHMEKE_FAC = 1.0           !   [nondim] default = 0.0
                                ! A factor that maps MEKE%Kh to Kh for MEKE itself.
MEKE_ALPHA_RHINES = 0.15        !   [nondim] default = 0.0
                                ! If positive, is a coefficient weighting the Rhines scale in the expression for
                                ! mixing length used in MEKE-derived diffusivity.
MEKE_ALPHA_EADY = 0.15          !   [nondim] default = 0.0
                                ! If positive, is a coefficient weighting the Eady length scale in the
                                ! expression for mixing length used in MEKE-derived diffusivity.

! === module MOM_lateral_mixing_coeffs ===
USE_VARIABLE_MIXING = True      !   [Boolean] default = False
                                ! If true, the variable mixing code will be called.  This allows diagnostics to
                                ! be created even if the scheme is not used.  If KHTR_SLOPE_CFF>0 or
                                ! KhTh_Slope_Cff>0, this is set to true regardless of what is in the parameter
                                ! file.
RESOLN_SCALED_KH = True         !   [Boolean] default = False
                                ! If true, the Laplacian lateral viscosity is scaled away when the first
                                ! baroclinic deformation radius is well resolved.
RESOLN_SCALED_KHTH = True       !   [Boolean] default = False
                                ! If true, the interface depth diffusivity is scaled away when the first
                                ! baroclinic deformation radius is well resolved.
KHTR_SLOPE_CFF = 0.25           !   [nondim] default = 0.0
                                ! The nondimensional coefficient in the Visbeck formula for the epipycnal tracer
                                ! diffusivity
USE_STORED_SLOPES = True        !   [Boolean] default = False
                                ! If true, the isopycnal slopes are calculated once and stored for re-use. This
                                ! uses more memory but avoids calling the equation of state more times than
                                ! should be necessary.

! === module MOM_set_visc ===
CHANNEL_DRAG = True             !   [Boolean] default = False
                                ! If true, the bottom drag is exerted directly on each layer proportional to the
                                ! fraction of the bottom it overlies.
PRANDTL_TURB = 1.25             !   [nondim] default = 1.0
                                ! The turbulent Prandtl number applied to shear instability.
HBBL = 10.0                     !   [m]
                                ! The thickness of a bottom boundary layer with a viscosity increased by
                                ! KV_EXTRA_BBL if BOTTOMDRAGLAW is not defined, or the thickness over which
                                ! near-bottom velocities are averaged for the drag law if BOTTOMDRAGLAW is
                                ! defined but LINEAR_DRAG is not.
DRAG_BG_VEL = 0.1               !   [m s-1] default = 0.0
                                ! DRAG_BG_VEL is either the assumed bottom velocity (with LINEAR_DRAG) or an
                                ! unresolved  velocity that is combined with the resolved velocity to estimate
                                ! the velocity magnitude.  DRAG_BG_VEL is only used when BOTTOMDRAGLAW is
                                ! defined.
BBL_THICK_MIN = 0.1             !   [m] default = 0.0
                                ! The minimum bottom boundary layer thickness that can be used with
                                ! BOTTOMDRAGLAW. This might be Kv/(cdrag*drag_bg_vel) to give Kv as the minimum
                                ! near-bottom viscosity.
KV = 0.0                        !   [m2 s-1]
                                ! The background kinematic viscosity in the interior. The molecular value, ~1e-6
                                ! m2 s-1, may be used.

! === module MOM_thickness_diffuse ===
KHTH_MAX_CFL = 0.1              !   [nondimensional] default = 0.8